LTspice 24.0.12 for Windows
Circuit: * C:\Users\tomii\Documents\LTspice\Draft8.asc
Start Time: Sun Oct 20 20:31:40 2024
Warning: Multiple definitions of model "2scr375p" Type: BJT
Warning: Multiple definitions of model "bc857b" Type: BJT
Warning: Multiple definitions of model "bc847c" Type: BJT
Warning: Multiple definitions of model "bc847b" Type: BJT
solver = Normal
Maximum thread count: 16
tnom = 27
temp = 27
method = modified trap
Direct Newton iteration for .op point succeeded.

average: AVG(v(vout)/v(vin))=13.3309 FROM 0.00101 TO 0.0025

Total elapsed time: 0.209 seconds.

