LTspice 24.0.9 for Windows
Circuit: * C:\Users\tomi\Documents\LTspice\Draft8.asc
Start Time: Tue Nov 19 23:32:32 2024
solver = Normal
Maximum thread count: 4
tnom = 27
temp = 27
method = modified trap
Direct Newton iteration for .op point succeeded.
Total elapsed time: 0.238 seconds.

