LTspice 24.0.12 for Windows
Circuit: * C:\Users\tomii\Documents\LTspice\Draft7.asc
Start Time: Tue Feb  4 17:21:13 2025
solver = Normal
Maximum thread count: 16
tnom = 27
temp = 27
method = modified trap
.OP point found by inspection.
Total elapsed time: 0.073 seconds.

